Version 4
SHEET 1 2148 1200
WIRE 624 -160 544 -160
WIRE 864 -160 704 -160
WIRE 1056 -160 928 -160
WIRE 544 -48 544 -160
WIRE 720 -48 544 -48
WIRE 1056 -48 1056 -160
WIRE 1056 -48 800 -48
WIRE 32 80 -64 80
WIRE 272 80 240 80
WIRE 544 80 544 -48
WIRE 544 80 352 80
WIRE 736 80 544 80
WIRE 1056 96 1056 -48
WIRE 1056 96 800 96
WIRE 1136 96 1056 96
WIRE 1296 96 1216 96
WIRE 1376 96 1296 96
WIRE 1424 96 1376 96
WIRE 736 112 704 112
WIRE -64 144 -64 80
WIRE 1424 144 1424 96
WIRE 704 192 704 112
WIRE 704 192 672 192
WIRE 1296 192 1296 160
WIRE 1296 192 704 192
WIRE 1296 224 1296 192
WIRE -64 272 -64 224
WIRE 32 272 -64 272
WIRE 704 272 704 192
WIRE 736 272 704 272
WIRE 1056 288 800 288
WIRE 1136 288 1056 288
WIRE 1296 288 1216 288
WIRE 1376 288 1296 288
WIRE 1424 288 1424 224
WIRE 1424 288 1376 288
WIRE -64 304 -64 272
WIRE 272 304 240 304
WIRE 544 304 352 304
WIRE 736 304 544 304
WIRE -64 432 -64 384
WIRE 32 432 -64 432
WIRE 544 448 544 304
WIRE 720 448 544 448
WIRE 1056 448 1056 288
WIRE 1056 448 800 448
WIRE 544 560 544 448
WIRE 608 560 544 560
WIRE 864 560 688 560
WIRE 1056 560 1056 448
WIRE 1056 560 928 560
FLAG 240 80 0
FLAG 240 304 0
FLAG 32 272 0
FLAG 32 80 VCC
FLAG 32 432 VEE
FLAG 672 192 0
FLAG 768 64 VCC
FLAG 768 320 VCC
FLAG 768 256 VEE
FLAG 768 128 VEE
FLAG 1376 96 plus
FLAG 1376 288 minus
SYMBOL current 272 80 R270
WINDOW 0 32 40 VTop 2
WINDOW 3 -32 40 VBottom 2
WINDOW 123 -60 40 VBottom 2
WINDOW 39 0 0 Left 0
SYMATTR InstName I1
SYMATTR Value SINE(2.132m {Iac} 1000)
SYMATTR Value2 AC 1
SYMBOL current 272 304 R270
WINDOW 0 32 40 VTop 2
WINDOW 3 -32 40 VBottom 2
WINDOW 123 -60 40 VBottom 2
WINDOW 39 0 0 Left 0
SYMATTR InstName I2
SYMATTR Value SINE(2.132m {Iac} 1000 0 0 180)
SYMATTR Value2 AC 1 180
SYMBOL Misc\\signal -64 128 R0
WINDOW 123 0 0 Left 0
WINDOW 39 0 0 Left 0
SYMATTR InstName V1
SYMATTR Value 12V
SYMBOL Misc\\signal -64 288 R0
WINDOW 123 0 0 Left 0
WINDOW 39 0 0 Left 0
SYMATTR InstName V2
SYMATTR Value 12V
SYMBOL res 816 -64 R90
WINDOW 0 0 56 VBottom 2
WINDOW 3 32 56 VTop 2
SYMATTR InstName R1
SYMATTR Value 2.37k
SYMBOL res 816 432 R90
WINDOW 0 0 56 VBottom 2
WINDOW 3 32 56 VTop 2
SYMATTR InstName R2
SYMATTR Value 2.37k
SYMBOL cap 928 544 R90
WINDOW 0 0 32 VBottom 2
WINDOW 3 32 32 VTop 2
SYMATTR InstName C1
SYMATTR Value 510p
SYMBOL cap 928 -176 R90
WINDOW 0 0 32 VBottom 2
WINDOW 3 32 32 VTop 2
SYMATTR InstName C2
SYMATTR Value 510p
SYMBOL OpAmps\\opamp2 768 32 R0
SYMATTR InstName U5
SYMATTR Value OPA1611
SYMATTR SpiceModel OPA1611
SYMBOL OpAmps\\opamp2 768 352 M180
SYMATTR InstName U1
SYMATTR Value OPA1611
SYMATTR SpiceModel OPA1611
SYMBOL res 720 -176 R90
WINDOW 0 0 56 VBottom 2
WINDOW 3 32 56 VTop 2
SYMATTR InstName R3
SYMATTR Value 10R
SYMBOL res 704 544 R90
WINDOW 0 0 56 VBottom 2
WINDOW 3 32 56 VTop 2
SYMATTR InstName R4
SYMATTR Value 10R
SYMBOL cap 1312 160 R180
WINDOW 0 24 56 Left 2
WINDOW 3 24 8 Left 2
SYMATTR InstName C3
SYMATTR Value 1n
SYMBOL cap 1312 288 R180
WINDOW 0 24 56 Left 2
WINDOW 3 24 8 Left 2
SYMATTR InstName C4
SYMATTR Value 1n
SYMBOL res 1232 80 R90
WINDOW 0 0 56 VBottom 2
WINDOW 3 32 56 VTop 2
SYMATTR InstName R5
SYMATTR Value 300R
SYMBOL res 1232 272 R90
WINDOW 0 0 56 VBottom 2
WINDOW 3 32 56 VTop 2
SYMATTR InstName R6
SYMATTR Value 300R
SYMBOL res 1440 240 R180
WINDOW 0 36 76 Left 2
WINDOW 3 36 40 Left 2
SYMATTR InstName R7
SYMATTR Value 200R
TEXT 136 544 Left 2 !.tran 0 10m 0 1u
TEXT 136 584 Left 2 !.four 1k 20 10 V(plus,minus)
TEXT 136 624 Left 2 !.include OPA1611.LIB
TEXT 136 664 Left 2 !.options plotwinsize=0
TEXT 136 704 Left 2 !.options numdgt=15
TEXT 144 448 Left 2 !.param Iac=1.931m
TEXT 136 744 Left 2 !.include OPA1622.LIB
